<configuration>
    <input>
        <net-file value="downtown_houston.net.xml" />
        <additional-files value="vehicle_type.add.xml,detectors.add.xml" />
    </input>
    <output>
        <emission-output value="energy.xml" />
    </output>
    <time>
        <begin value="0.0" />
        <end value="7200.0" />
    </time>
</configuration>