<additional>
    <vType id="car" accel="1.0" decel="1.0" length="5" maxSpeed="100.0" sigma="0.0" minGap="2.5" mass="1500" color="0,1,0">
        <param key="has.battery.device" value="true"/>
        <param key="device.battery.capacity" value="16000"/>
        <param key="maximumPower" value="1000"/>
        <param key="frontSurfaceArea" value="2.5"/>
        <param key="airDragCoefficient" value="0.32"/>
        <param key="rotatingMass" value="10"/>
        <param key="radialDragCoefficient" value="0.015"/>
        <param key="rollDragCoefficient" value="0.008"/>
        <param key="constantPowerIntake" value="100"/>
        <param key="propulsionEfficiency" value="0.9"/>
        <param key="recuperationEfficiency" value="0.9"/>
        <param key="stoppingThreshold" value="0.1"/>
        <param key="device.battery.maximumChargeRate" value="150000"/>
    </vType>
</additional>